ipss.test.plugin.core/testData/adpter/psse/PSSE_5bus_output.TXT
PTI INTERACTIVE POWER SYSTEM SIMULATOR--PSS/E      WED, NOV 04 2009  13:54
                                             BASICO 1, SEMINARIO DE GRADUACION INTERPSS
                                             LABORATORIO DE SIMULACION SISTEMAS DE POTENCIA, ICE, I-2008
 
  X------- FROM BUS ------X AREA  VOLT            GEN    LOAD    SHUNT  X---------- TO BUS ----------X                        TRANSFORMER    RATING A
    BUS# X-- NAME --X BASKV ZONE  PU/KV  ANGLE  MW/MVAR MW/MVAR MW/MVAR   BUS# X-- NAME --X BASKV AREA CKT    MW     MVAR    RATIO   ANGLE   %I   MVA
 
       1 UNO-U1      13.800    1 1.0000    0.0    22.5      0.0     0.0 -----------------------------------------------------------------------------
                               1 13.800           15.9R     0.0     0.0      2 UNO-230     230.00    1  1     22.5    15.9  1.000UN          35    79
 
       2 UNO-230     230.00    1 0.9735   -2.3     0.0      0.0     0.0 -----------------------------------------------------------------------------
                               1 223.91            0.0      0.0     0.0      1 UNO-U1      13.800    1  1    -22.5   -14.5  1.000LK          35    79
                                                                             3 DOS-230     230.00    1  1     45.0    29.1                   18   300
                                                                             5 UNO-U2      13.800    1  1    -22.5   -14.5  1.000UN          35    79
       3 DOS-230     230.00    1 0.9702   -2.5     0.0      0.0     0.0 -----------------------------------------------------------------------------
                               1 223.15            0.0      0.0     0.0      2 UNO-230     230.00    1  1    -45.0   -30.4                   19   300
                                                                             4 TRES-34.5   34.500    1  1     45.0    30.4  1.000LK          71    79
       4 TRES-34.5   34.500    1 0.9198   -7.5     0.0     45.0     0.0 -----------------------------------------------------------------------------
                               1 31.735            0.0     25.0     0.0      3 DOS-230     230.00    1  1    -45.0   -25.0  1.000UN          71    79
 
       5 UNO-U2      13.800    1 1.0000    0.0    22.5      0.0     0.0 -----------------------------------------------------------------------------
                               1 13.800           15.9R     0.0     0.0      2 UNO-230     230.00    1  1     22.5    15.9  1.000LK          35    79
                               
                               
 the following is run by InterPSS :
                               
                          Load Flow Summary

                         Max Power Mismatches
             Bus          dPmax       Bus          dQmax
            ---------------------------------------------------
            Bus4         0.000001    Bus4         0.000000 (pu)
                         0.058808                 0.040709 (kva)

     BusID         Code              Volt(pu)   Angle(deg)     P(pu)     Q(pu)
  ----------------------------------------------------------------------------
  Bus1          Swing                1.00000       0.0       0.2255    0.1585
  Bus2                               0.97352      -2.3       0.0000    0.0000
  Bus3                               0.97022      -2.5       0.0000    0.0000
  Bus4                 ConstP        0.91985      -7.5      -0.4500   -0.2500
  Bus5          PV                   1.00000      -0.0       0.2250    0.1585
  
